Title: SUMO modulates meiotic crossover rates between and within vertebrate species

URL Source: https://www.biorxiv.org/content/10.64898/2026.03.26.714374v1.full.pdf

Number of Pages: 37

Markdown Content:
SUMO modulates meiotic crossover rate s between and within vertebrate species 1

2

3

S. Lava Kumar 1,2 , Rohit Beniwal 1,2 , Aradhana Mohanty 1,2 , Ajith Kumar 1,2 , Anjali Kumari 1,2 ,4

Gandham , R. K. 1, Neil Hunter 3,4 , and H.B.D. Prasada Rao 1, *5

6

7

1 BRIC -National Institute of Animal Biotechnology, Hyderabad, Telangana 500032, India 8

2 Graduate studies, Regional Center for Biotechnology, Faridabad - 121 001, India 9

3 Howard Hughes Medical Institute, University of California Davis, Davis, CA 95616, USA 10 

4 Department of Microb iology & Molecular Genetics, University of California Davis, Davis, CA 11 

95616, USA 12 

*Correspondence to H.B.D. Prasada Rao, E -mail: prasad@niab.org.in 13 

14 

15 

Running head: Regulation of crossover rate by SUMO 16 

17 

18 

19 

20 

21 

22 

23 

24 

25 

> .CC-BY 4.0 International license available under a (which was not certified by peer review) is the author/funder, who has granted bioRxiv a license to display the preprint in perpetuity. It is made The copyright holder for this preprint this version posted March 27, 2026. ;https://doi.org/10.64898/2026.03.26.714374 doi: bioRxiv preprint

2

Abstract: 26 

Crossing over during meiosis drives genetic diversity and ensures the accurate segregation of 27 

homologous chromosomes. Variation in the rate of crossing over has been linked to evolutionary 28 

divergence and environmental adaptability, shaping fitness and responses to selective pressures. 29 

Despit e its significance, the molecular mechanisms underlying this variation remain poorly 30 

understood. Crossover sites are selected from a large pool of potential sites initiated by programmed 31 

DNA double -strand breaks. Post -translational modification by SUMO (Sm all Ubiquitin -like 32 

Modifier) has been implicated in this process . Here, we show that crossover rate, chromosome 33 

length, and abundance of chromosome -associated SUMO are positively correlated across a range 34 

of vertebrate species , including mouse, chicken, pi g, cattle , sheep, and goat . Crossover variation 35 

between goat breeds across the Indian subcontinent was also positively correlated with 36 

chromosomal SUMO level. Furthermore, modulating SUMO levels in cultured goat spermatocytes 37 

alter ed crossover frequenc y. Cumulatively, these observations point to a central role for SUMO in 38 

mediating crossover variation both between and within vertebrate species. 39 

40 

41 

42 

43 

44 

45 

46 

47 

48 

49 

50 

51 

52 

53 

54 

55 

56 

> .CC-BY 4.0 International license available under a (which was not certified by peer review) is the author/funder, who has granted bioRxiv a license to display the preprint in perpetuity. It is made The copyright holder for this preprint this version posted March 27, 2026. ;https://doi.org/10.64898/2026.03.26.714374 doi: bioRxiv preprint 3

Introduction: 57 

Meiosis produce s haploid gametes during sexual reproduction 1. In meiotic prophase I, crossing 58 

over between homologous chromosomes promotes accurate segregation and genetic variation 2.59 

Crossover rates vary between individuals , sexes , and species 3. A four -locus model suggests that 60 

crossover variation is beneficial for environmental adaptability 4. Notably, a population with a 61 

higher recombination rate shows a more ro bust response to natural and artificial selection 62 

pressures 5-7. This is manifest in domesticated plant and livestock species , which have higher 63 

crossover rate s than their predecessors or wild counterparts 8,9 . Although crossover rates vary 64 

between individuals and species, the distribution of crossovers is controlled to ensure that at least 65 

one crossover forms between each chromosome pair 10 . The se obligate crossovers are required to 66 

ensure accurate disjunction of homologous chromosomes at the first meiotic divisio n10 .67 

> 68

Crossing over is one outcome of homologous recombination , which is initiated during meiosis by 69 

SPO11 -catalyzed DNA double -strand break s (DSB s)11 . DSB ends are resected to form long 3' 70 

single -stranded tails that assemble filaments of the RAD51 and DMC1 recombinases to catalyze 71 

homology search and DNA strand invasion 2,12 . Nascent strand invas ion intermediates are stabilized 72 

by a conserved set of meiosis -specific ZMM factors that facilitate chromosome pairing and synapsis 73 

and enable the differentiation of crossover sites. I nitially defined in budding yeast, the ZMMs 74 

include Zip1 Sycp1 , Zip2 Shoc1 , Spo16 , Zip3 Rnf212 , Zip4 Tex11 , Mer3 Hfm1 , and Msh4 -Msh5 (names of 75 

mammalian counterparts are superscript )2,13,14 . Among these, the RING -family E3 ligase RNF212 76 

plays a key role in crossover designation by localizin g along the synaptonemal complex (SC) and 77 

becoming selectively enriched at a subset of recombination sites, where it stabilizes recombination 78 

intermediates. In parallel, post -translational modification by SUMO (Small Ubiquitin -like 79 

Modifier) acts in concer t with RNF212 to regulate recombination progression. SUMO localizes as 80 

discrete foci along chromosome axes during early prophase I, particularly during zygonema, in 81 

association with the SC, and this axis -associated SUMO is largely dependent on RNF212. Toge ther, 82 

RNF212 and SUMO are thought to stabilize recombination intermediates and promote their 83 

differentiation into crossovers 15,16 . At designated crossover sites, ZMMs and crossover -specific 84 

factors such as MutL  (MLH1 -MLH3) facilitate the formation and resolution of double Holliday 85 

junction (dHJ) intermediates specifically into crossovers 17,18 . At other recombination sites , the 86 

invad ing strand is extended by DNA synthesi s before being dissociated and annealing to the other 87 

DSB end to produce a non -crossover , without exchange of chromosome arms 2,18 . 16 Genetic, 88 

epigenetic, and environmental variation can modulate the rate of crossing over 19 -21 . The rapid 89 

> .CC-BY 4.0 International license available under a (which was not certified by peer review) is the author/funder, who has granted bioRxiv a license to display the preprint in perpetuity. It is made The copyright holder for this preprint this version posted March 27, 2026. ;https://doi.org/10.64898/2026.03.26.714374 doi: bioRxiv preprint 4

evolution of meiotic crossover landsca pes is exemplified by the lack of conservation between 90 

human and chimpanzee recombination maps 22 . Furthe rmore , crossover rate is not dictated solely 91 

by karyotype or genome size: for example, goats and cattle have the same number of chromosome 92 

arms and similar genome sizes but different recombination rate s23,24 . Also, sex -specific variation in 93 

crossover rate occurs in many species , often with females hav ing a higher rate than males , although 94 

the opposite is also common , as seen in sheep, cows and deer 25 -27 . Genome -wide association studies 95 

(GWAS) in humans, mice, cattle, pigs, sheep, and goats have linked several genetic variants to 96 

heritable differences in recombination rates 28 -32 . In mice and humans, the numbers o f DSBs and 97 

crossovers are positively correlated with the axial lengths of meiotic prophase chromosomes, 98 

measured as the lengths of synaptonemal complex es 12,20,33,34 . However, DSB frequency is not the 99 

sole determina nt of the crossover rate. For example, mice with reduced DSB levels (via reduced 100 

SPO11 activity ) can maintain a wild -type crossover rate through a process termed crossover 101 

homeostasis 35 . In mammals, a minor but variable fraction of DSBs is matured into crossovers. For 102 

example, in mouse spermatocytes , only ~10% of DSBs mature into crossovers , w hereas in humans ,103 

~35% of DSBs become crossovers 20,27,36 . How such variation in crossover bias is acquired during 104 

evolution remains unclear . In this study, using a variety of vertebrate species, we provide evidence 105 

for the important role of SUMO in crossover variation. 106 

> 107

Results: 108 

> 109

Crossover rate and chromosome -axis length are correlated across species defining a quasi -110 

fixed unit of axis length per crossover 111 

To understand what dr ives variation in crossover rates among vertebrates, we examined how 112 

crossover frequency relates to genome size, karyotype, and chromosome axis length during meiotic 113 

prophase I in evolutionarily distinct domesticated livestock species : chicken ( Gallus gal lus 114 

domesticus ), pig ( Sus scrofa ), cattle (Bos indicus ), sheep ( Ovis aries ), and goat ( Capra hircus ),115 

along with mouse ( Mus musculus ) as a well -established model (Fig. 1A) . Crossovers were 116 

quantified by immunostaining surface -spread spermatocyte nuclei for the crossover marker MLH1 117 

and the chromosome axis protein SYCP3 (Fig. 1B). MLH1 foci were quantified in late -pachytene 118 

stage nuclei (Fig. 1C, Fig. S1B), providing a reliable cytological estimate of crossover numbers. 119 

Consistent with previous studies, MLH 1 counts closely matched known genetic map lengths across 120 

species, validating our approach. 37,38 ,38 

> 121

For example, chicken spermatocytes exhibited 62 ± 5.5 MLH1 foci per nucleus, corresponding to 122 

a genetic map leng th of ~3150 cM, whereas mice showed 23 ± 2.1 foci, consistent with ~1150 123 

> .CC-BY 4.0 International license available under a (which was not certified by peer review) is the author/funder, who has granted bioRxiv a license to display the preprint in perpetuity. It is made The copyright holder for this preprint this version posted March 27, 2026. ;https://doi.org/10.64898/2026.03.26.714374 doi: bioRxiv preprint 5

cM 39,40 . Similar agreement was observed across other species: in pig, 34 ± 3.0 MLH1 foci matched 124 

a genetic map length of ~1747 cM (~35 expect ed); in cattle, sex -averaged Bos indicus maps (~3160 125 

cM) corresponded to 52 ± 9.5 (~39 MLH1 foci expected in Bos taurus with genetic map length 126 

~1975 cM ), respectively; in sheep ( Ovis aries ), 68 ± 4.6 MLH1 foci aligned with a genetic map 127 

length of ~3817 cM (~76 expected); and in goat ( Capra hircus ), 67 ± 4.1 MLH1 foci matched 128 

~3500 cM (~70 expected) 41 -45 .129 

> 130

Possible drivers of the different crossover rates in vertebrate species include differences in genome 131 

size (M b of DNA), the number of chromosomes and chromosome arms, karyotype asymmetry (the 132 

size difference between the largest and smallest chromosomes), and the physical lengths of 133 

chromosomes during meiotic prophase I. To evaluate these possibilities, we systema tically 134 

compared each of these parameters with crossover frequency across the species analyzed. 135 

Genome size : Total genome size was not well correlated with the number of MLH1 foci 136 

per nucleus (Fig. 1 D; R2 = 0.03379 ). For instance, chicken, with a relative ly small genome (~1.2 137 

Gb), exhibited a similar number of MLH1 foci as sheep and goat, which have much larger genomes 138 

(~2.6 –2.7 Gb). At the same time, chicken displayed substantially higher crossover numbers than 139 

mouse, pig, and cattle, despite these specie s having comparable genome sizes (~2.5 –2.7 Gb). When 140 

normalized to genome size, the number of MLH1 foci per Gb of DNA further highlighted this lack 141 

of scaling. Chicken showed a markedly elevated crossover density, with ~2.5 –7-fold higher MLH1 142 

foci per Gb c ompared to other species (Fig. 1E). In contrast, the remaining species displayed more 143 

moderate variation: pig (~1.6 –4-fold), cattle (~2 –3.3 -fold), sheep (~2.7 -fold), and goat (~2.5 -fold 144 

differences relative to each other), while mouse consistently showed l ower values. Overall, MLH1 145 

density ranged from ~0.36 to 2.73 foci per Gb across species, indicating that genome size alone is 146 

not a major determinant of crossover rate. 147 

Chromosome number , structure , and asymmetry : Crossover assurance ensures that each 148 

pa ir of homologs becomes connected by at least one obligatory chiasmata, as required for a ccurate 149 

homolog segregation at the first meiotic division. Thus, chromosome number is expected to be one 150 

driver of crossover rate. Indeed, MLH1 foci per nucleus and chr omosome number were positively 151 

correlated across species (Fig. 1F; R2 = 0.6026 ; Table 1 ). However, the fit was not good and species 152 

with similar numbers of chromosome s, such as mouse and pig (20 and 19, respectively) or goat and 153 

cattle (30) , had significan tly different numbers of MLH1 foci per nucleus (Fig. 1F) and per 154 

chromosome (Fig. 1G ; Table 1 ), indicating additional drivers of crossover rate beyond chromosome 155 

number. Differences in the number of chromosome arms between species did also not account for 156 

these deviations (Fig. 1H ; R2 = 0. 6748 ). Mechanisms that help ensure crossing over occurs between 157 

> .CC-BY 4.0 International license available under a (which was not certified by peer review) is the author/funder, who has granted bioRxiv a license to display the preprint in perpetuity. It is made The copyright holder for this preprint this version posted March 27, 2026. ;https://doi.org/10.64898/2026.03.26.714374 doi: bioRxiv preprint 6

the smallest chromosomes might also drive a higher overall crossover rate. Therefore, we asked 158 

whether karyotype asymmetry (specifically the ratio of the larg est chromosome to the smallest 159 

chromosome) was correlated with the number of MLH1 foci, but the fit was poor (Fig. 1I; R2 =160 

0. 2172 ). 161 

Chromosome axis length: Covariation of crossover rate and prophase I chromosome -axis 162 

length was previously reported in mic e and humans 46 . Therefore, we compared the 163 

axis /synaptonemal complex (SC) lengths in late -pachy tene spermatocytes from mouse, chicken, 164 

pig, cattle, sheep and goat . Chromosome axis lengths were strongly positively correlated with th e165 

numbers of MLH1 foci per nucleus (Fig. 1 J, R2 = 0.8984 ), with chicken being the sole outlier .166 

Moreover , p lotting the frequency of MLH1 foci per μm of SC suggests a quasi -fixed crossover rate 167 

per unit -length of 0.1 0–0. 22 MLH1 foci per μm of axis (Fig. 1K) .168 

A clear exception to this trend is chicken, with 0. 22 MLH1 foci per μm SC , indicating an additional 169 

driver of crossover rate in this species . A likely candidate is the obligate crossovers between the 170 

numerous very small chromosomes in chicken , with 29 out of 39 chromosomes being classified as 171 

micro - or dot -chromosomes 47 . Consistently , if the  micro - and dot -chromosomes are excluded from 172 

our analysis, the  ratio of MLH1 per μm axis is now more similar to that of oth er vertebrate species 173 

(0.16 ± 0.02 MLH1 per μm SC ; Fig. S1A 1K). 174 

> 175

The number of recombination precursors per crossover is similar across livestock species 176 

In most species, a minor fraction of precursor DSBs mature into crossovers 2. To estimate DSB 177 

numbers and understand the relationships with crossover frequency and chromosome axis length, 178 

spermatocyte nuclei were immunostained for the DNA strand -exchange protein RAD51 , to mark 179 

DSB sites, and SYCP3 to mark chr omosome axes and stage nuclei (Fig. 2A ). Although the numbers 180 

and dynamics of RAD51 foci varied across species ( Fig. S2A and B) , the ratio of RAD51 foci per 181 

MLH1 focus (≈DSBs per crossover) was similar in all livestock species, averaging 2.8 ( range 2.486 182 

to 2.977 , Fig. 2B), i.e. ~35% of DSBs are converted into crossovers, which is similar to human 183 

spermatocytes 48 . The outlier was mouse, with ~10 RAD51 foci per MLH 1, confirming that the 184 

crossover/noncrossover ratio is not a fixed parameter in mammalian meiosis. The density of RAD51 185 

per μm of SC was also similar for pig, cattle, sheep, and goat at ~ 0.354 (Fig. 2C), but was 186 

significantly higher for chicken ( 0.823 ) and mouse ( 1.053 ). Thus, DSB density does not appear to 187 

be a fixed function of axis architecture. These inferences were confirmed by staining for a second 188 

DSB marker, the single -strande d DNA binding protein, RPA 15  (Fig. 2D –F and S3A, B) .189 

> 190

RNF212 foci positively correlates with axis length and crossove r rate 191 

> .CC-BY 4.0 International license available under a (which was not certified by peer review) is the author/funder, who has granted bioRxiv a license to display the preprint in perpetuity. It is made The copyright holder for this preprint this version posted March 27, 2026. ;https://doi.org/10.64898/2026.03.26.714374 doi: bioRxiv preprint 7

In mouse, RNF212 is required for the differentiation of crossover sites and the chromosomal 192 

localization of crossover -specific factors such as MutL  . RNF212 localizes specifically to the 193 

SC central region, initially as numerous foci before accumulating at crossover sites during mid -late 194 

pachytene while diminishing elsewhere 16 . Immunostaining of RNF212 revealed that this dynamic 195 

behavior of RNF212 is conserved across vertebrates (Fig. 3A and B). Also, the density of RNF212 196 

foci in early pachytene spermatocytes was similar across the species tested, at 0.4 –0.6 foci per μm 197 

of SC (Fig. 3C) , possibly reflecting a conserved structural feature of the SC central region. 198 

Consequently, numbers of RNF212 foci were po sitively correlated with both SC/axis length (Fig. 199 

3D) and the numbers of MLH1 foci across vertebrate species (Fig. 3E). The number of RNF212 200 

foci per crossover was similar for mouse, pig, sheep and goat (~4 RNF212 per MLH1 ) but lower 201 

for chicken and cattl e (~2 foci) (Fig. 3F) . RNF212 foci did not no correlated with early precursors 202 

(RAD51 and RPA) (Fig. 3G and H) .203 

> 204

Axis -associated SUMO positively correlates with SC length and crossover rate 205 

Previous studies in mouse showed that SUMO localizes as a focal pa ttern along chromosome axes 206 

as synaps is ensues during zygotene , before disappearing during pachytene while accumulating at 207 

centromeric heterochromatin and the XY chromosomes (to mark the transcriptionally silenced sex 208 

body ) (Fig. 4A) 15 . More over, axis -associated SUMO was show to be largely RNF212 dependent 15 .209 

The patterns and dynamics of SUMO1 immunostaining in spermatocyte nuclei from livestock 210 

species were similar but also distinct from that of mouse (Fig. 4A and B). Most not ably, unlike in 211 

mouse, axis -associated foci of SUMO1 persisted during pachytene, albeit at lower levels than seen 212 

in zygotene . The numbers of SUMO1 foci were also positively correlated with both axis length and 213 

number s of MLH1 foci (Fig. 4C and 4D) . Also, the density of SUMO1 foci in late zygotene 214 

spermatocytes was similar across pig, cattle, sheep and goat , at 0.5 –0.8 foci per μm of SC (Fig. 4E) ,215 

lower in chicken ( 0.4 foci ) and higher in mouse ( 1.1 foci ). Similarly, t he number of SUMO1 foci 216 

per MLH1 focus was also similar in pig, cattle, sheep and goat (~ 5-6) across species , lower in 217 

chicken (~2 ) and higher in mouse (~11) (Fig. 4F). Overall , these results suggest that axis -associated 218 

SUMO positively correlates with crossovers and chromosome length in higher -order vertebrates. 219 

> 220

Intra -species v ariation in crossover rate positively correlates with chromosome axis length 221 

and levels of axis -associated SUMO in goat breeds 222 

The goat breed used in the analysis thus far is Jamunapari . However, 43 domestic goat breeds are 223 

recognized on the Indian subcontinent, (National Bureau of Animal Genetic Resources - India ) that 224 

differ in their fitness and reproductive characteristics. We collected spermatocytes from five of 225 

> .CC-BY 4.0 International license available under a (which was not certified by peer review) is the author/funder, who has granted bioRxiv a license to display the preprint in perpetuity. It is made The copyright holder for this preprint this version posted March 27, 2026. ;https://doi.org/10.64898/2026.03.26.714374 doi: bioRxiv preprint 8

these breeds and immunostained them for MLH1 and SYCP3 (F ig. 5A). MLH1 focus numbers 226 

var ied significantly , with average s of 51 ± 6.7 SD in Osmanabadi ; 61 ± 3.4 SD in Jamunapari; 66 227 

± 3.2 SD in Nandidurga; 70.1 ± 5.1 SD in Mahbubnagar ; and 67 .1 ± 4.3 SD in Black Bengal (Fig. 228 

5B). Importantly , crossover rate across these breeds was positively correlated with both 229 

chromosome axis length (Fig. 5C and 5E) and the number of SUMO1 foci (Fig. 5D and 5 F) in 230 

pachytene -stage spermatocyte nuclei. Moreover, co -staining for SUMO1 and PRR 19 revealed 231 

strong positive correlations between SUMO1 foci, PRR19 foci, and axis lengths in individual 232 

spermatocyte nuclei across the f ive species (Fig. 5E –G and S4 ). 233 

> 234

Chemical modulation of SUMO alters crossover rate in both cultured goat spermatocytes 235 

and in vivo in mouse 236 

Collectively, our da ta suggest a functional relationship between SUMO levels, chromosome axis 237 

length, and crossover rate. To test this possibility , we employed short -term culture of Osmanabadi 238 

goat spermatocytes and chemical inhibitors of SUMO conjugation ( the UBC9 E2 -conjug ase 239 

inhibitor 2-DO8) or deconjugation (the SENP1 -isopeptidase inhibitor momordin) 15 (Fig. 6A). As 240 

seen for cultured mouse spermatocytes , 2 -DO8 treatment diminished chromosomal SUMO 1241 

staining (Fig. 6B and 6C) 15 . In contrast, SUM O1 accumulated on the axes and chromatin of 242 

momordin treat ed spermatocytes (Fig. 6B and 6C). Analysis of MLH1 foci and chromosome axis 243 

length s revealed opposite effects of inhibiting conjugation and deconjugation on crossover levels 244 

(Fig. 6B , 6D and 6E ). I n control spermatocyte nuclei (no treatment), MLH1 foci averaged 52.8 ± 245 

4.8 SD , compared to 47.27 ± 5.5 SD in 2 -DO8 treated cells , and 56 ± 6.9 SD in momordin treated 246 

cells (Fig. 6D). Total chromosome axis length in control spermatocyte s averaged 380 ± 20 .1 SD ,247 

compared to 340.27 ± 23.5 SD in 2 -DO8 treated cells , and 421 ± 32.9 SD in momordin treated cells 248 

(Fig. 6 E). These results are further evidence of a positive role for SUMO in regulating meiotic 249 

crossing over and chromosome axis length in higher -orde r vertebrates .250 

> 251

These findings were further validated in mice via intraperitoneal injections of 2 -DO8 or momordin. 252 

Two -month -old males were given a dose of 10 mg/kg bodyweight of either 2 -DO8 or momordin 253 

every 15 days over a 45 -day period (Fig. 6 F). Sperm atocyte chromosomes were subjected to 254 

immunofluorescence analysis to quantify SUMO levels and MLH1 foci (Fig. 6 G). Similar to results 255 

obtained from cultured goat and mouse spermatocytes, 2 -DO8 treatment decreased chromosomal 256 

SUMO1 staining, while momordin treatment caused SUMO1 accumulation on chromosome axes 257 

and chromatin (Fig. 6 H). Untreated mouse spermatocytes averag ed 22.1 ± 1.6 SD MLH1 foci ,258 

> .CC-BY 4.0 International license available under a (which was not certified by peer review) is the author/funder, who has granted bioRxiv a license to display the preprint in perpetuity. It is made The copyright holder for this preprint this version posted March 27, 2026. ;https://doi.org/10.64898/2026.03.26.714374 doi: bioRxiv preprint 9

compared to 18.30 ± 2.5 SD in 2 -DO8 -treated cells and 24 ± 2.1 SD in momordin -treated cells (Fig. 259 

6I).260 

> 261

Discuss ion: 262 

> 263

Crossover rates vary significantly across species, sexes, and even individuals 26,50,51 . Such variation 264 

is thought to be shaped by evolutionary pressures, environmental factors, and genetic makeup 26,51,52 .265 

However, the molecular mechanisms governing crossover variation remain elusive. This study 266 

provides evidence that SUMO plays a role in modulating crossover rates both between and within 267 

vertebrate species. 268 

> 269

Chromosom e axis length as a conserved scaling parameter 270 

Our comparative analysis shows that the positive correlation between chromosome axis length and 271 

crossover frequency , previously reported for mouse and human, can be extend ed across livestock 272 

vertebrate species (Fig. 1). Moreover, t he quasi -fixed crossover density per unit of chromosome 273 

axis length observed in these species points to a conserved regulatory mechanism that ensures a 274 

consistent recombination rate proportional to chromosome length (Fig. 1). A likely mechanism is 275 

crossover interference, the one dimensional patterning process that reduces the occurrence of 276 

closely -spaced crossovers and results in a relatively even spacing of adjacent crossovers 53 . Our 277 

crossover density data (MLH1 foci per μm axis) imply that interference distances (MLH1 inter -278 

focus distances) average 6.7 –9.1 μm in the species stud ies. In this context, the chromosome axis 279 

can be viewed not merely as a scaffold but as an active regulator that spatially constrains 280 

recombination events. 281 

However, the case of chicken highlights deviation in this model. The elevated crossover density 282 

obse rved in chicken is largely explained by the presence of numerous micro -chromosomes, each of 283 

which must acquire at least one crossover. This indicates that obligate crossover requirements can 284 

locally override global scaling rules, demonstrating how structur al constraints and regulatory 285 

mechanisms interact to shape recombination landscapes. 286 

> 287

Variability in DSB/crossover ratios and DSB densities 288 

The ratio of RAD51 foci to MLH1 foci, which reflects the number of DSBs per crossover, was 289 

relatively uniform in al l species except mouse, averaging 2.8 (Fig. 2). This is equivalent to ~35% 290 

of DSBs maturing into crossovers , which is comparable to the rate reported for human 291 

spermatocytes 27 . With ~10 RAD51 foci per MLH1 mouse wa s the outlier with a much lower 292 

crossover to non -crossover ratio. 293 

> .CC-BY 4.0 International license available under a (which was not certified by peer review) is the author/funder, who has granted bioRxiv a license to display the preprint in perpetuity. It is made The copyright holder for this preprint this version posted March 27, 2026. ;https://doi.org/10.64898/2026.03.26.714374 doi: bioRxiv preprint 10

The density of RAD51 foci was similar for pig, cattle, sheep, and goat at 0.35 foci per μm of axis 294 

(Fig. 2). In contrast, chicken and mouse had significantly higher densities, at 0.82 and 1. 02 foci per 295 

μm, respectively (Fig.  2). This data indicate that DSB frequency is not solely determined by axis 296 

length but can vary between species. These observations were corroborated by staining for RPA, a297 

second marker of DSB sites marker . The relative s tability of the DSB -to -crossover ratio across 298 

species indicates that only a subset of breaks is selected for crossover fate in a largely conserved 299 

manner. This shifts attention away from break formation as the dominant control point and toward 300 

later steps in recombination, where crossover designation and stabilization occur. In this light, 301 

variation in recombination rate reflects differences in how recombination intermediates are 302 

processed, rather than how frequently they are initiated. 303 

> 304

SUMO regulates chro mosome axis length and crossover rate 305 

> 306

One of the most notable finding is that recombination rate is not a rigid property of a species, but a 307 

plastic trait that can be tuned through changes in chromosome architecture. The strong covariation 308 

we observe betw een chromosome axis length, SUMO levels, and crossover frequency, both across 309 

species and within goat breeds, suggests that relatively subtle shifts in how chromosomes are 310 

organized during meiosis can produce meaningful differences in recombination output (Fig. 4 and 311 

5). This provides a simple and elegant solution to a long -standing problem: how crossover rates can 312 

evolve without disrupting the essential requirement for at least one crossover per chromosome pair. 313 

A key feature of this model is that it decou ples recombination rate from genome size and, to a large 314 

extent, from DSB formation. Instead of requiring large -scale genomic changes, recombination can 315 

be adjusted through modulation of axis length or the SUMO -dependent environment that governs 316 

recombinat ion intermediate stability. Because the SUMO pathway targets a wide range of 317 

chromosomal proteins including cohesin, condensin, and axis components , small changes in SUMO 318 

dynamics or target specificity could alter chromosome structure in ways that scale cr ossover 319 

number 54,55 . In this sense, the SUMO machinery represents a broad and flexible regulatory layer 320 

capable of fine -tuning recombination. 321 

This framework also provides a plausible explanation for the rapid evolu tion of recombination 322 

landscapes observed across vertebrates 56 . Changes in axis organization or SUMO regulation could 323 

shift crossover rates over relatively short evolutionary time scales, without requiring alterations to 324 

the core recombination machinery. The variation we observe among goat breeds reinforces this 325 

idea, demonstrating that such changes can arise within a single species and may contribute to 326 